* KT940A BJT Model
.model KT940A npn (
+ bf=150
+ is=400f
+ vaf=200
+ ikf=60m
+ xtb=1.5
+ br=1
+ cjc=24p
+ vjc=0.75
+ mjc=0.5
+ fc=0.5
+ cje=50p
+ vje=0.75
+ mje=0.33
+ tr=50n
+ tf=2.5n
+ itf=50m
+ vtf=10
+ xtf=2
+ xti=3
+ eg=1.11
+ isc=10f
+ nc=2
+ ise=700p
+ ne=2
+ rb=30
+ rbm=3
+ irb=0.1m
+ rc=3
+ rco=60
+ Vo=7
+ gamma=1E-6
+ qco=1E-11
)
