* -*- spice -*-
* Модель для NPN транзистора QNPN
* Все параметры указаны с пояснением

.MODEL QNPN NPN(IS=100e-5 BF=1200 VAF=100 RB=1)

* Дополнительные параметры могут быть добавлены здесь
